Version 4
SHEET 1 1456 864
WIRE 96 32 96 -16
WIRE 96 32 -64 32
WIRE 272 32 96 32
WIRE 416 32 272 32
WIRE -64 96 -64 32
WIRE 272 96 272 32
WIRE 416 128 416 32
WIRE -64 256 -64 176
WIRE -64 256 -240 256
WIRE 272 256 272 192
WIRE 416 256 416 192
WIRE 416 256 272 256
WIRE 528 256 416 256
WIRE 272 304 272 256
WIRE -64 320 -64 256
WIRE 784 320 784 272
WIRE 880 320 784 320
WIRE 992 320 960 320
WIRE 1072 320 992 320
WIRE 1184 320 1152 320
WIRE 1280 320 1184 320
WIRE 1392 320 1360 320
WIRE -240 336 -240 256
WIRE 416 336 416 256
WIRE 992 368 992 320
WIRE 1184 368 1184 320
WIRE 1392 368 1392 320
WIRE -784 464 -784 432
WIRE -656 464 -656 432
WIRE -656 464 -704 464
WIRE -592 464 -656 464
WIRE -496 464 -512 464
WIRE -432 464 -496 464
WIRE -704 480 -704 464
WIRE -704 480 -736 480
WIRE -656 480 -656 464
WIRE -432 480 -432 464
WIRE 992 480 992 432
WIRE 1184 480 1184 432
WIRE 1392 480 1392 432
WIRE -496 496 -496 464
WIRE -64 496 -64 400
WIRE 96 496 -64 496
WIRE 272 496 272 400
WIRE 272 496 96 496
WIRE 416 496 416 400
WIRE 416 496 272 496
WIRE -720 528 -736 528
WIRE 96 544 96 496
WIRE -784 560 -784 544
WIRE -720 576 -720 528
WIRE -656 576 -656 560
WIRE -656 576 -720 576
WIRE -496 576 -496 560
WIRE -496 576 -656 576
WIRE -432 576 -432 560
WIRE -432 576 -496 576
WIRE -656 592 -656 576
WIRE -336 592 -336 576
WIRE -256 592 -336 592
WIRE -160 592 -176 592
WIRE -80 592 -160 592
WIRE -336 624 -336 592
WIRE -160 624 -160 592
WIRE -80 624 -80 592
WIRE -336 720 -336 704
WIRE -160 720 -160 688
WIRE -160 720 -336 720
WIRE -80 720 -80 704
WIRE -80 720 -160 720
WIRE -336 736 -336 720
FLAG -240 336 0
FLAG 528 256 A
FLAG 784 272 A
FLAG 224 176 pwm_a1
FLAG 224 384 pwm_a2
FLAG -656 592 A
FLAG -336 736 0
FLAG -656 432 pwm_a1
FLAG -336 576 pwm_a2
FLAG -784 560 0
FLAG -784 432 pwm_a1_refgnd
FLAG 96 -16 vP
FLAG 96 544 vN
FLAG 992 480 0
FLAG 1184 480 0
FLAG 1392 480 0
SYMBOL nmos 224 96 R0
SYMATTR InstName M1
SYMATTR Value Si7336ADP
SYMBOL nmos 224 304 R0
SYMATTR InstName M2
SYMATTR Value Si7336ADP
SYMBOL voltage -64 80 R0
WINDOW 123 0 0 Left 0
WINDOW 39 0 0 Left 0
SYMATTR InstName V1
SYMATTR Value 1.5
SYMBOL voltage -64 304 R0
WINDOW 123 0 0 Left 0
WINDOW 39 0 0 Left 0
SYMATTR InstName V2
SYMATTR Value 1.5
SYMBOL diode 432 192 R180
WINDOW 0 24 64 Left 2
WINDOW 3 24 0 Left 2
SYMATTR InstName D1
SYMBOL diode 432 400 R180
WINDOW 0 24 64 Left 2
WINDOW 3 24 0 Left 2
SYMATTR InstName D2
SYMBOL voltage -656 464 R0
WINDOW 3 24 96 Invisible 2
WINDOW 123 0 0 Left 0
WINDOW 39 0 0 Left 0
SYMATTR InstName V4
SYMATTR Value PULSE(0 5 {Tdelay1} 10n 10n {Ton} {T} 1e12)
SYMBOL voltage -336 608 R0
WINDOW 3 24 96 Invisible 2
WINDOW 123 0 0 Left 0
WINDOW 39 0 0 Left 0
SYMATTR InstName V5
SYMATTR Value PULSE(0 5 {Tdelay2} 10n 10n {Ton} {T} 1e12)
SYMBOL e -784 448 M0
SYMATTR InstName E1
SYMATTR Value 1
SYMBOL res -496 448 R90
WINDOW 0 0 56 VBottom 2
WINDOW 3 32 56 VTop 2
SYMATTR InstName R2
SYMATTR Value 500
SYMBOL cap -512 496 R0
SYMATTR InstName C1
SYMATTR Value 1µ
SYMBOL res -160 576 R90
WINDOW 0 0 56 VBottom 2
WINDOW 3 32 56 VTop 2
SYMATTR InstName R3
SYMATTR Value 500
SYMBOL cap -176 624 R0
SYMATTR InstName C2
SYMATTR Value 1µ
SYMBOL res -96 608 R0
SYMATTR InstName R4
SYMATTR Value 2k
SYMBOL res -448 464 R0
SYMATTR InstName R5
SYMATTR Value 2k
SYMBOL res 976 304 R90
WINDOW 0 0 56 VBottom 2
WINDOW 3 32 56 VTop 2
SYMATTR InstName R6
SYMATTR Value {Rf}
SYMBOL cap 976 368 R0
SYMATTR InstName C3
SYMATTR Value {Cf}
SYMBOL res 1168 304 R90
WINDOW 0 0 56 VBottom 2
WINDOW 3 32 56 VTop 2
SYMATTR InstName R1
SYMATTR Value {Rf}
SYMBOL cap 1168 368 R0
SYMATTR InstName C4
SYMATTR Value {Cf}
SYMBOL res 1376 304 R90
WINDOW 0 0 56 VBottom 2
WINDOW 3 32 56 VTop 2
SYMATTR InstName R7
SYMATTR Value {Rf}
SYMBOL cap 1376 368 R0
SYMATTR InstName C5
SYMATTR Value {Cf}
TEXT -752 -24 Left 2 !.param f0 = 100
TEXT -752 72 Left 2 !.param Tdead = T*pct_dead/100
TEXT -752 96 Left 2 !.param Ton = (0.5*T) - Tdead
TEXT -752 48 Left 2 !.param T = 1/f0
TEXT -752 120 Left 2 !.param Tdelay1 = 0
TEXT -752 144 Left 2 !.param Tdelay2 = 0.5*T
TEXT -258 -40 Left 2 !.tran 0 100m 50m
TEXT 776 96 Left 2 !.param fc = 60
TEXT 776 120 Left 2 !.param pi = 3.14159
TEXT 776 144 Left 2 !.param Cf = 100n
TEXT 776 168 Left 2 !.param Rf = 1/(2*pi*Cf*fc)
TEXT -752 0 Left 2 !.param pct_dead = 5
